REMARK  10 active torsions:
REMARK  status: ('A' for Active; 'I' for Inactive)
REMARK    1  A    between atoms: C3_3  and  C16_21 
REMARK    2  A    between atoms: C6_6  and  C7_7 
REMARK    3  A    between atoms: C7_7  and  C8_8 
REMARK    4  A    between atoms: C8_8  and  C9_9 
REMARK    5  A    between atoms: C13_14  and  N3_18 
REMARK       I    between atoms: C16_21  and  N5_23 
REMARK    6  A    between atoms: N5_23  and  C17_24 
REMARK    7  A    between atoms: C17_24  and  C18_25 
REMARK    8  A    between atoms: C17_24  and  C21_29 
REMARK    9  A    between atoms: C18_25  and  C19_26 
REMARK   10  A    between atoms: C19_26  and  C20_27 
ROOT
ATOM      1  C1  <0> d           0.814   5.390   3.239  0.00  0.00     0.005 C 
ATOM      2  C2  <0> d          -0.391   6.117   2.639  0.00  0.00     0.014 C 
ATOM      3  C3  <0> d          -0.608   5.644   1.200  0.00  0.00     0.078 C 
ATOM      4  C4  <0> d           0.639   5.952   0.369  0.00  0.00     0.014 C 
ATOM      5  C5  <0> d           1.844   5.224   0.968  0.00  0.00     0.005 C 
ATOM      6  C6  <0> d           2.061   5.697   2.407  0.00  0.00    -0.014 C 
ENDROOT
BRANCH   6   7
ATOM      7  C7  <0> d           3.266   4.970   3.007  0.00  0.00     0.005 C 
BRANCH   7   8
ATOM      8  C8  <0> d           4.534   5.374   2.252  0.00  0.00     0.007 C 
BRANCH   8   9
ATOM      9  C9  <0> d           5.739   4.647   2.851  0.00  0.00     0.008 C 
ATOM     10  C15 <0> d           5.598   3.138   2.615  0.00  0.00     0.126 C 
ATOM     11  N4  <0> d           6.737   2.470   3.259  0.00  0.00    -0.373 N 
ATOM     12  C12 <0> d           8.008   3.000   3.094  0.00  0.00     0.153 A 
ATOM     13  H22 <0> d           6.602   1.672   3.793  0.00  0.00     0.161 HD
ATOM     14  C11 <0> d           8.186   4.278   2.583  0.00  0.00     0.043 A 
ATOM     15  N1  <0> d           9.075   2.280   3.433  0.00  0.00    -0.047 NA
ATOM     16  C10 <0> d           7.021   5.138   2.178  0.00  0.00     0.053 C 
ATOM     17  C14 <0> d           9.482   4.763   2.447  0.00  0.00     0.203 A 
ATOM     18  N2  <0> d          10.502   3.990   2.808  0.00  0.00    -0.166 N 
ATOM     19  O1  <0> d           9.702   6.006   1.953  0.00  0.00    -0.171 OA
ATOM     20  C13 <0> d          10.296   2.774   3.290  0.00  0.00     0.702 A 
ATOM     21  H19 <0> d          11.437   4.332   2.714  0.00  0.00     0.186 HD
BRANCH  20  22
ATOM     22  N3  <0> d          11.384   2.000   3.654  0.00  0.00    -0.233 N 
ATOM     23  H20 <0> d          12.283   2.349   3.554  0.00  0.00     0.174 HD
ATOM     24  H21 <0> d          11.247   1.108   4.009  0.00  0.00     0.174 HD
ENDBRANCH  20  22
ENDBRANCH   8   9
ENDBRANCH   7   8
ENDBRANCH   6   7
BRANCH   3  25
ATOM     25  C16 <0> d          -0.864   4.159   1.193  0.00  0.00     0.222 C 
ATOM     26  O2  <0> d          -0.871   3.540   2.236  0.00  0.00    -0.273 OA
ATOM     27  N5  <0> d          -1.084   3.519   0.028  0.00  0.00    -0.346 N 
ATOM     28  H25 <0> d          -1.078   4.014  -0.806  0.00  0.00     0.163 HD
BRANCH  27  29
ATOM     29  C17 <0> d          -1.332   2.075   0.021  0.00  0.00     0.186 C 
BRANCH  29  30
ATOM     30  C18 <0> d          -2.135   1.702  -1.227  0.00  0.00     0.046 C 
BRANCH  30  31
ATOM     31  C19 <0> d          -3.519   2.350  -1.155  0.00  0.00     0.116 C 
BRANCH  31  32
ATOM     32  C20 <0> d          -4.310   1.982  -2.384  0.00  0.00     0.172 C 
ATOM     33  O3  <0> d          -3.818   1.274  -3.230  0.00  0.00    -0.648 OA
ATOM     34  O5  <0> d          -5.562   2.441  -2.538  0.00  0.00    -0.648 OA
ENDBRANCH  31  32
ENDBRANCH  30  31
ENDBRANCH  29  30
BRANCH  29  35
ATOM     35  C21 <0> d          -0.017   1.339   0.010  0.00  0.00     0.196 C 
ATOM     36  O4  <0> d           1.022   1.958   0.004  0.00  0.00    -0.646 OA
ATOM     37  O6  <0> d           0.002  -0.003   0.002  0.00  0.00    -0.646 OA
ENDBRANCH  29  35
ENDBRANCH  27  29
ENDBRANCH   3  25
TORSDOF 10
